  Page 1                                    Fri Nov 21 09:41:57 2025

  ******************************************************************
  *                           E P A N E T                          *
  *                   Hydraulic and Water Quality                  *
  *                   Analysis for Pipe Networks                   *
  *                         Version 2.2                            *
  ******************************************************************
  
  Analysis begun Fri Nov 21 09:41:57 2025

  Analysis ended Fri Nov 21 09:41:57 2025
