  Page 1                                    Thu Nov 20 16:45:19 2025

  ******************************************************************
  *                           E P A N E T                          *
  *                   Hydraulic and Water Quality                  *
  *                   Analysis for Pipe Networks                   *
  *                         Version 2.2                            *
  ******************************************************************
  
  Analysis begun Thu Nov 20 16:45:19 2025

  Analysis ended Thu Nov 20 16:45:19 2025
